FMN
  -OEChem-05102419313D

 52 54  0     1  0  0  0  0  0999 V2000
    2.1180   -2.4930    0.5310 N   0  0  0  0  0  0  0  0  0  0  0  0
    2.7130   -3.6380    0.2060 C   0  0  0  0  0  0  0  0  0  0  0  0
    2.1220   -4.6770    0.4450 O   0  0  0  0  0  0  0  0  0  0  0  0
    3.9210   -3.7210   -0.3680 N   0  0  0  0  0  0  0  0  0  0  0  0
    4.6360   -2.6100   -0.6640 C   0  0  0  0  0  0  0  0  0  0  0  0
    5.7320   -2.6820   -1.1850 O   0  0  0  0  0  0  0  0  0  0  0  0
    4.0270   -1.3050   -0.3250 C   0  0  0  0  0  0  0  0  0  0  0  0
    4.6310   -0.1700   -0.5660 N   0  0  0  0  0  0  0  0  0  0  0  0
    4.0510    0.9950   -0.2460 C   0  0  0  0  0  0  0  0  0  0  0  0
    4.7180    2.2060   -0.5140 C   0  0  0  0  0  0  0  0  0  0  0  0
    4.1310    3.3920   -0.1900 C   0  0  0  0  0  0  0  0  0  0  0  0
    4.8500    4.6830   -0.4800 C   0  0  0  0  0  0  0  0  0  0  0  0
    2.8740    3.4230    0.4050 C   0  0  0  0  0  0  0  0  0  0  0  0
    2.2460    4.7480    0.7520 C   0  0  0  0  0  0  0  0  0  0  0  0
    2.1970    2.2550    0.6780 C   0  0  0  0  0  0  0  0  0  0  0  0
    2.7740    1.0290    0.3590 C   0  0  0  0  0  0  0  0  0  0  0  0
    2.1010   -0.1440    0.6310 N   0  0  0  0  0  0  0  0  0  0  0  0
    2.6950   -1.3250    0.3040 C   0  0  0  0  0  0  0  0  0  0  0  0
    0.7770   -0.1190    1.2580 C   0  0  0  0  0  0  0  0  0  0  0  0
   -0.3000   -0.0600    0.1730 C   0  0  2  0  0  0  0  0  0  0  0  0
   -0.1220    1.1210   -0.6110 O   0  0  0  0  0  0  0  0  0  0  0  0
   -1.6830   -0.0350    0.8270 C   0  0  2  0  0  0  0  0  0  0  0  0
   -1.8600   -1.2170    1.6110 O   0  0  0  0  0  0  0  0  0  0  0  0
   -2.7600    0.0240   -0.2580 C   0  0  2  0  0  0  0  0  0  0  0  0
   -2.5820    1.2060   -1.0420 O   0  0  0  0  0  0  0  0  0  0  0  0
   -4.1420    0.0490    0.3970 C   0  0  0  0  0  0  0  0  0  0  0  0
   -5.1490   -0.0130   -0.6150 O   0  0  0  0  0  0  0  0  0  0  0  0
   -6.7250   -0.0070   -0.2850 P   0  0  0  0  0  0  0  0  0  0  0  0
   -7.0530    1.1800    0.5360 O   0  0  0  0  0  0  0  0  0  0  0  0
   -7.5610    0.0450   -1.6600 O   0  0  0  0  0  0  0  0  0  0  0  0
   -7.1090   -1.3440    0.5260 O   0  0  0  0  0  0  0  0  0  0  0  0
    4.2910   -4.5930   -0.5770 H   0  0  0  0  0  0  0  0  0  0  0  0
    5.6950    2.1950   -0.9750 H   0  0  0  0  0  0  0  0  0  0  0  0
    4.5850    5.0310   -1.4790 H   0  0  0  0  0  0  0  0  0  0  0  0
    4.5600    5.4340    0.2550 H   0  0  0  0  0  0  0  0  0  0  0  0
    5.9270    4.5200   -0.4270 H   0  0  0  0  0  0  0  0  0  0  0  0
    1.6560    5.1030   -0.0930 H   0  0  0  0  0  0  0  0  0  0  0  0
    1.5990    4.6270    1.6220 H   0  0  0  0  0  0  0  0  0  0  0  0
    3.0280    5.4730    0.9790 H   0  0  0  0  0  0  0  0  0  0  0  0
    1.2220    2.2900    1.1410 H   0  0  0  0  0  0  0  0  0  0  0  0
    0.6420   -1.0210    1.8560 H   0  0  0  0  0  0  0  0  0  0  0  0
    0.6950    0.7580    1.8990 H   0  0  0  0  0  0  0  0  0  0  0  0
   -0.2180   -0.9380   -0.4690 H   0  0  0  0  0  0  0  0  0  0  0  0
   -0.1830    1.9420   -0.1040 H   0  0  0  0  0  0  0  0  0  0  0  0
   -1.7650    0.8420    1.4690 H   0  0  0  0  0  0  0  0  0  0  0  0
   -1.8000   -2.0380    1.1040 H   0  0  0  0  0  0  0  0  0  0  0  0
   -2.6770   -0.8530   -0.9000 H   0  0  0  0  0  0  0  0  0  0  0  0
   -2.6420    2.0270   -0.5350 H   0  0  0  0  0  0  0  0  0  0  0  0
   -4.2440   -0.8070    1.0640 H   0  0  0  0  0  0  0  0  0  0  0  0
   -4.2570    0.9710    0.9670 H   0  0  0  0  0  0  0  0  0  0  0  0
   -8.5200    0.0510   -1.5370 H   0  0  0  0  0  0  0  0  0  0  0  0
   -6.9210   -2.1620    0.0470 H   0  0  0  0  0  0  0  0  0  0  0  0
  1  2  1  0  0  0  0
  1 18  2  0  0  0  0
  2  3  2  0  0  0  0
  2  4  1  0  0  0  0
  4  5  1  0  0  0  0
  4 32  1  0  0  0  0
  5  6  2  0  0  0  0
  5  7  1  0  0  0  0
  7  8  2  0  0  0  0
  7 18  1  0  0  0  0
  8  9  1  0  0  0  0
  9 10  2  0  0  0  0
  9 16  1  0  0  0  0
 10 11  1  0  0  0  0
 10 33  1  0  0  0  0
 11 12  1  0  0  0  0
 11 13  2  0  0  0  0
 12 34  1  0  0  0  0
 12 35  1  0  0  0  0
 12 36  1  0  0  0  0
 13 14  1  0  0  0  0
 13 15  1  0  0  0  0
 14 37  1  0  0  0  0
 14 38  1  0  0  0  0
 14 39  1  0  0  0  0
 15 16  2  0  0  0  0
 15 40  1  0  0  0  0
 16 17  1  0  0  0  0
 17 18  1  0  0  0  0
 17 19  1  0  0  0  0
 19 20  1  0  0  0  0
 19 41  1  0  0  0  0
 19 42  1  0  0  0  0
 20 21  1  0  0  0  0
 20 22  1  0  0  0  0
 20 43  1  0  0  0  0
 21 44  1  0  0  0  0
 22 23  1  0  0  0  0
 22 24  1  0  0  0  0
 22 45  1  0  0  0  0
 23 46  1  0  0  0  0
 24 25  1  0  0  0  0
 24 26  1  0  0  0  0
 24 47  1  0  0  0  0
 25 48  1  0  0  0  0
 26 27  1  0  0  0  0
 26 49  1  0  0  0  0
 26 50  1  0  0  0  0
 27 28  1  0  0  0  0
 28 29  2  0  0  0  0
 28 30  1  0  0  0  0
 28 31  1  0  0  0  0
 30 51  1  0  0  0  0
 31 52  1  0  0  0  0
M  END
> <OPENEYE_ISO_SMILES>
Cc1cc2c(cc1C)n(c-3nc(=O)[nH]c(=O)c3n2)C[C@@H]([C@@H]([C@@H](COP(=O)(O)O)O)O)O

> <OPENEYE_INCHI>
InChI=1S/C17H21N4O9P/c1-7-3-9-10(4-8(7)2)21(15-13(18-9)16(25)20-17(26)19-15)5-11(22)14(24)12(23)6-30-31(27,28)29/h3-4,11-12,14,22-24H,5-6H2,1-2H3,(H,20,25,26)(H2,27,28,29)/t11-,12+,14-/m0/s1

> <OPENEYE_INCHIKEY>
FVTCRASFADXXNN-SCRDCRAPSA-N

> <FORMULA>
C17H21N4O9P

$$$$
